Version 4
SHEET 1 1112 680
WIRE 208 -96 -16 -96
WIRE 624 -80 432 -80
WIRE -256 16 -368 16
WIRE -256 32 -256 16
WIRE 112 32 32 32
WIRE 528 32 368 32
WIRE 944 32 784 32
WIRE -368 96 -368 16
WIRE -368 96 -576 96
WIRE -352 96 -368 96
WIRE -96 96 -160 96
WIRE -16 96 -16 -96
WIRE -16 96 -96 96
WIRE 16 96 -16 96
WIRE 432 96 432 -80
WIRE 848 96 848 -64
WIRE -160 112 -160 96
WIRE 208 112 208 -64
WIRE 240 112 208 112
WIRE 256 112 240 112
WIRE 624 112 624 -48
WIRE 640 112 624 112
WIRE 1056 112 1056 96
WIRE 1056 112 1040 112
WIRE -96 128 -96 96
WIRE -352 144 -384 144
WIRE 16 144 0 144
WIRE 432 144 400 144
WIRE 848 144 800 144
WIRE -160 192 -160 176
WIRE 16 192 -160 192
WIRE 320 192 320 -80
WIRE 432 192 320 192
WIRE 736 192 736 -64
WIRE 848 192 736 192
WIRE 112 256 -256 256
WIRE 528 256 112 256
WIRE 944 256 528 256
WIRE 960 256 944 256
WIRE -384 288 -384 144
WIRE -384 288 -576 288
WIRE 0 288 0 144
WIRE 0 288 -384 288
WIRE 400 288 400 144
WIRE 400 288 0 288
WIRE 800 288 800 144
WIRE 800 288 400 288
WIRE -368 304 -368 96
WIRE 32 304 32 32
WIRE 32 304 -368 304
WIRE 368 304 368 32
WIRE 368 304 32 304
WIRE 784 304 784 32
WIRE 784 304 368 304
WIRE 240 368 240 112
WIRE 848 368 240 368
WIRE 960 384 960 256
WIRE 848 448 848 400
WIRE 1056 448 1056 112
WIRE 1056 448 848 448
FLAG -576 96 HIGH
FLAG -448 -80 HIGH
FLAG -576 288 CLK
FLAG -352 192 0
FLAG -368 -80 0
FLAG -176 -80 0
FLAG -256 -80 CLK
FLAG -96 128 Q1
FLAG 256 112 Q2
FLAG 624 112 Q3
FLAG 1056 96 Q4
SYMBOL 74HCT\\74hct109 112 32 R0
SYMATTR InstName U1
SYMBOL 74HCT\\74hct109 528 32 R0
SYMATTR InstName U2
SYMBOL 74HCT\\74hct109 944 32 R0
SYMATTR InstName U3
SYMBOL 74HCT\\74hct109 -256 32 R0
SYMATTR InstName U4
SYMBOL 74HCT\\74hct00 672 -128 R0
SYMATTR InstName U5
SYMBOL 74HCT\\74hct00 896 320 R0
SYMATTR InstName U6
SYMBOL 74HCT\\74hct00 256 -144 R0
SYMATTR InstName U7
SYMBOL 74HCT\\74hct04 368 -144 R0
SYMATTR InstName U8
SYMBOL 74HCT\\74hct04 784 -128 R0
SYMATTR InstName U9
SYMBOL voltage -464 -80 R270
WINDOW 0 32 56 VTop 2
WINDOW 3 -32 56 VBottom 2
WINDOW 123 0 0 Left 0
WINDOW 39 0 0 Left 0
SYMATTR InstName V1
SYMATTR Value 5
SYMBOL voltage -272 -80 R270
WINDOW 0 32 56 VTop 2
WINDOW 3 -32 56 VBottom 2
WINDOW 123 0 0 Left 0
WINDOW 39 0 0 Left 0
SYMATTR InstName V2
SYMATTR Value PULSE(0 5 0.5 1n 1n 0.5 1)
TEXT -594 38 Left 2 !.tran 0 20 0
