Version 4
SHEET 1 1284 788
WIRE 816 -96 48 -96
WIRE 656 -80 656 -160
WIRE 656 -80 288 -80
WIRE 48 -32 48 -96
WIRE 64 -32 48 -32
WIRE 288 -32 288 -80
WIRE 304 -32 288 -32
WIRE 656 -16 656 -80
WIRE 672 -16 656 -16
WIRE 64 0 -32 0
WIRE 304 0 176 0
WIRE 432 0 416 0
WIRE 512 0 432 0
WIRE 672 16 624 16
WIRE 848 16 784 16
WIRE 896 16 848 16
WIRE 64 32 48 32
WIRE 304 32 288 32
WIRE 512 32 496 32
WIRE 672 48 656 48
WIRE 432 96 432 0
WIRE 432 96 320 96
WIRE 656 96 656 48
WIRE 816 96 816 -96
WIRE 816 96 656 96
WIRE 48 144 48 32
WIRE 48 144 -32 144
WIRE 336 144 48 144
WIRE 496 144 496 32
WIRE 496 144 448 144
WIRE 288 208 288 32
WIRE 432 208 288 208
WIRE 848 208 848 16
WIRE 848 208 656 208
WIRE 320 224 320 96
WIRE 320 224 288 224
WIRE 656 256 656 208
WIRE 672 256 656 256
WIRE 48 272 48 144
WIRE 64 272 48 272
WIRE 288 272 288 224
WIRE 304 272 288 272
WIRE 496 272 496 144
WIRE 512 272 496 272
WIRE 672 288 624 288
WIRE 816 288 816 96
WIRE 816 288 784 288
WIRE 912 288 816 288
WIRE 64 304 -32 304
WIRE 304 304 176 304
WIRE 432 304 432 208
WIRE 432 304 416 304
WIRE 512 304 432 304
WIRE 528 304 512 304
WIRE 672 320 656 320
WIRE 64 336 48 336
WIRE 304 336 288 336
WIRE 288 384 288 336
WIRE 656 384 656 320
WIRE 656 384 288 384
WIRE 48 400 48 336
WIRE 848 400 848 208
WIRE 848 400 48 400
WIRE 656 448 656 384
FLAG 544 448 R
FLAG 544 -160 S
FLAG -32 0 J
FLAG -32 144 C
FLAG -32 304 K
FLAG 896 16 Q
FLAG 912 288 _Q
FLAG -32 592 0
FLAG 48 592 0
FLAG 128 592 0
FLAG 48 512 J
FLAG 128 512 C
FLAG -32 512 K
FLAG 624 592 0
FLAG 704 592 0
FLAG 624 512 S
FLAG 704 512 R
SYMBOL 74HCT\\74hct10 112 -80 R0
SYMATTR InstName U1
SYMBOL 74HCT\\74hct10 112 224 R0
SYMATTR InstName U2
SYMBOL 74HCT\\74hct00 560 -48 R0
SYMATTR InstName U3
SYMBOL 74HCT\\74hct00 560 224 R0
SYMATTR InstName U4
SYMBOL 74HCT\\74hct10 352 -80 R0
SYMATTR InstName U5
SYMBOL 74HCT\\74hct10 352 224 R0
SYMATTR InstName U6
SYMBOL 74HCT\\74hct10 720 208 R0
SYMATTR InstName U7
SYMBOL 74HCT\\74hct10 720 -64 R0
SYMATTR InstName U8
SYMBOL 74HCT\\74hct04 384 80 R0
SYMATTR InstName U9
SYMBOL 74HCT\\74hct04 592 384 R0
SYMATTR InstName U10
SYMBOL 74HCT\\74hct04 592 -224 R0
SYMATTR InstName U11
SYMBOL voltage -32 496 R0
WINDOW 3 241 18 Left 2
WINDOW 123 0 0 Left 0
WINDOW 39 0 0 Left 0
SYMATTR InstName V1
SYMATTR Value PULSE(0 5 {2*T} 1n 1n {2*T} {4*T})
SYMBOL voltage 48 496 R0
WINDOW 3 162 42 Left 2
WINDOW 123 0 0 Left 0
WINDOW 39 0 0 Left 0
SYMATTR InstName V2
SYMATTR Value PULSE(0 5 {4*T} 1n 1n {4*T} {8*T})
SYMBOL voltage 128 496 R0
WINDOW 3 83 64 Left 2
WINDOW 123 0 0 Left 0
WINDOW 39 0 0 Left 0
SYMATTR InstName V3
SYMATTR Value PULSE(0 5 {T/2} 1n 1n {T} {2*T})
SYMBOL voltage 624 496 R0
WINDOW 3 153 38 Left 2
WINDOW 123 0 0 Left 0
WINDOW 39 0 0 Left 0
SYMATTR InstName V4
SYMATTR Value PULSE(0 5 0 1n 1n {T/10})
SYMBOL voltage 704 496 R0
WINDOW 3 72 18 Left 2
WINDOW 123 0 0 Left 0
WINDOW 39 0 0 Left 0
SYMATTR InstName V5
SYMATTR Value PULSE(0 0 0 1n 1n {T/10})
TEXT 760 448 Left 2 !.tran 0 0.02 0 0.0001
TEXT 760 424 Left 2 !.param T=0.001
