Version 4
SHEET 1 1488 680
WIRE -240 96 -240 64
WIRE -96 96 -96 64
WIRE 16 96 16 64
WIRE 128 96 128 64
WIRE -240 112 -240 96
WIRE -192 112 -240 112
WIRE -96 112 -96 96
WIRE -48 112 -96 112
WIRE 16 112 16 96
WIRE 64 112 16 112
WIRE 128 112 128 96
WIRE 176 112 128 112
WIRE -240 128 -240 112
WIRE -96 128 -96 112
WIRE 16 128 16 112
WIRE 128 128 128 112
WIRE 176 176 176 112
WIRE 208 176 176 176
WIRE 208 208 144 208
WIRE 320 240 320 192
WIRE 16 256 16 240
WIRE 144 256 144 208
WIRE 144 256 16 256
WIRE -96 272 -96 240
WIRE 320 272 -96 272
WIRE 448 272 432 272
WIRE -192 304 -192 112
WIRE 320 304 -192 304
WIRE 448 304 448 272
WIRE 464 304 448 304
WIRE 576 320 576 256
WIRE 656 320 576 320
WIRE 832 320 768 320
WIRE 464 336 448 336
WIRE 128 400 128 240
WIRE 320 400 128 400
WIRE 832 400 832 320
WIRE 64 432 64 112
WIRE 320 432 64 432
WIRE 448 432 448 336
WIRE 448 432 432 432
WIRE 320 464 288 464
WIRE -48 496 -48 112
WIRE 176 496 -48 496
WIRE 288 512 288 464
WIRE 656 512 608 512
WIRE 832 512 832 432
WIRE 832 512 768 512
WIRE -240 528 -240 240
WIRE 176 528 -240 528
FLAG -240 -16 0
FLAG -96 -16 0
FLAG 16 -16 0
FLAG 128 -16 0
FLAG 576 256 y
FLAG 528 512 0
FLAG 944 416 y_MS
FLAG -240 96 x1
FLAG -96 96 x2
FLAG 16 96 x3
FLAG 128 96 x4
SYMBOL 74HCT\\74hct04 -176 176 R90
SYMATTR InstName U1
SYMBOL 74HCT\\74hct04 -32 176 R90
SYMATTR InstName U2
SYMBOL 74HCT\\74hct04 80 176 R90
SYMATTR InstName U3
SYMBOL 74HCT\\74hct04 192 176 R90
SYMATTR InstName U4
SYMBOL 74HCT\\74hct27 368 352 R0
SYMATTR InstName U5
SYMBOL 74HCT\\74hct27 368 192 R0
SYMATTR InstName U6
SYMBOL 74HCT\\74hct02 512 256 R0
SYMATTR InstName U7
SYMBOL 74HCT\\74hct02 256 128 R0
SYMATTR InstName U8
SYMBOL 74HCT\\74hct02 224 448 R0
SYMATTR InstName U9
SYMBOL voltage -240 80 R180
WINDOW 0 24 96 Left 2
WINDOW 3 -821 85 Left 2
WINDOW 123 0 0 Left 0
WINDOW 39 0 0 Left 0
SYMATTR InstName x1
SYMATTR Value PULSE(0 5 0.125 1n 1n 0.125 0.25)
SYMBOL voltage -96 80 R180
WINDOW 0 24 96 Left 2
WINDOW 3 -637 57 Left 2
WINDOW 123 0 0 Left 0
WINDOW 39 0 0 Left 0
SYMATTR InstName x2
SYMATTR Value PULSE(0 5 0.25 1n 1n 0.25 0.5)
SYMBOL voltage 16 80 R180
WINDOW 0 24 96 Left 2
WINDOW 3 -337 42 Bottom 2
WINDOW 123 0 0 Left 0
WINDOW 39 0 0 Left 0
SYMATTR InstName x3
SYMATTR Value PULSE(0 5 0.5 1n 1n 0.5 1)
SYMBOL voltage 128 80 R180
WINDOW 0 24 96 Left 2
WINDOW 3 -329 1 Left 2
WINDOW 123 0 0 Left 0
WINDOW 39 0 0 Left 0
SYMATTR InstName x4
SYMATTR Value PULSE(0 5 1 1n 1n 1 2)
SYMBOL 74HCT\\74hct04 704 256 R0
SYMATTR InstName U10
SYMBOL 74HCT\\74hct04 704 448 R0
SYMATTR InstName U11
SYMBOL 74HCT\\74hct02 880 352 R0
SYMATTR InstName U12
SYMBOL voltage 624 512 R90
WINDOW 0 -32 56 VBottom 2
WINDOW 3 32 56 VTop 2
WINDOW 123 0 0 Left 0
WINDOW 39 0 0 Left 0
SYMATTR InstName Masterswitch
SYMATTR Value PULSE(0 5 0 1n 1n 2 4)
TEXT 476 170 Left 2 !.tran 0 4 0
