Version 4
SHEET 1 880 680
WIRE 192 128 160 128
WIRE 352 144 256 144
WIRE 512 144 352 144
WIRE 192 160 96 160
WIRE 352 176 352 144
WIRE 160 272 160 128
WIRE 352 272 352 256
WIRE 352 272 160 272
WIRE 352 320 352 272
WIRE 64 416 32 416
WIRE 96 416 64 416
WIRE 352 432 352 400
WIRE 64 448 64 416
FLAG 64 448 0
FLAG 224 112 VCC+
FLAG 176 416 VCC+
FLAG -48 416 VCC-
FLAG 224 176 VCC-
FLAG 96 240 0
FLAG 512 144 VA
FLAG 352 432 0
SYMBOL UA741\\UA741 224 144 R0
SYMATTR InstName U1
SYMBOL res 336 160 R0
SYMATTR InstName R1
SYMATTR Value 492k
SYMBOL res 336 304 R0
SYMATTR InstName R2
SYMATTR Value 7.8k
SYMBOL voltage 96 144 R0
WINDOW 123 0 0 Left 0
WINDOW 39 0 0 Left 0
SYMATTR InstName V1
SYMATTR Value 125m
SYMBOL voltage 192 416 R90
WINDOW 0 -32 56 VBottom 2
WINDOW 3 32 56 VTop 2
WINDOW 123 0 0 Left 0
WINDOW 39 0 0 Left 0
SYMATTR InstName V3
SYMATTR Value 15
SYMBOL voltage 48 416 R90
WINDOW 0 -32 56 VBottom 2
WINDOW 3 32 56 VTop 2
WINDOW 123 0 0 Left 0
WINDOW 39 0 0 Left 0
SYMATTR InstName V2
SYMATTR Value 15
TEXT -122 482 Left 2 !.dc V1 -0.3 0.3 0.05
