Version 4
SHEET 1 888 680
WIRE 384 80 384 16
WIRE 384 80 208 80
WIRE 608 80 384 80
WIRE 160 96 144 96
WIRE 560 96 496 96
WIRE 80 144 48 144
WIRE 112 144 80 144
WIRE 144 144 144 96
WIRE 144 144 112 144
WIRE 208 192 208 176
WIRE 608 192 608 176
WIRE 608 192 208 192
WIRE 784 192 608 192
WIRE 80 272 48 272
WIRE 496 272 496 96
WIRE 496 272 80 272
WIRE 560 272 496 272
WIRE 608 320 608 288
WIRE 112 400 112 144
WIRE 560 400 112 400
FLAG 384 -64 0
FLAG -32 144 0
FLAG -32 272 0
FLAG 784 192 U_q
FLAG 80 272 U_l
FLAG 80 144 U_l1
FLAG 608 416 0
SYMBOL AutoGenerated\\ZVN2106A 560 320 R0
WINDOW 0 59 66 Left 2
WINDOW 3 124 19 Top 2
SYMATTR InstName n-MOSFET2
SYMBOL AutoGenerated\\ZVN2106A 560 192 R0
WINDOW 0 61 64 Left 2
WINDOW 3 124 23 Top 2
SYMATTR InstName n-MOSFET1
SYMBOL AutoGenerated\\ZVP2106A 560 176 M180
SYMATTR InstName p-MOSFET2
SYMBOL AutoGenerated\\ZVP2106A 160 176 M180
SYMATTR InstName p-MOSFET1
SYMBOL voltage 64 144 R90
WINDOW 0 -32 56 VBottom 2
WINDOW 3 32 56 VTop 2
WINDOW 123 0 0 Left 0
WINDOW 39 0 0 Left 0
SYMATTR InstName V1
SYMATTR Value PULSE(0 5 0.11 0 0 0.1 0.2)
SYMBOL voltage 64 272 R90
WINDOW 0 -32 56 VBottom 2
WINDOW 3 32 56 VTop 2
WINDOW 123 0 0 Left 0
WINDOW 39 0 0 Left 0
SYMATTR InstName V2
SYMATTR Value PULSE(0 5 0.05 0 0 0.05 0.1)
SYMBOL voltage 384 32 R180
WINDOW 0 24 96 Left 2
WINDOW 3 24 16 Left 2
WINDOW 123 0 0 Left 0
WINDOW 39 0 0 Left 0
SYMATTR InstName VB
SYMATTR Value 5
TEXT -152 426 Left 2 !.tran 0 0.205 0
